

                          U.S. Geological Survey
        Coupled Groundwater and Surface-water FLOW model (GSFLOW)
                         Version 2.0.0 06/25/2018

    An integration of the Precipitation-Runoff Modeling System (PRMS)
    and the Modular Groundwater Model (MODFLOW-NWT and MODFLOW-2005)


               Precipitation-Runoff Modeling System (PRMS)
                       Version 5.0.0 06/01/2018

                            MODFLOW-NWT-SWR1 
  U.S. GEOLOGICAL SURVEY MODULAR FINITE-DIFFERENCE GROUNDWATER-FLOW MODEL
                         WITH NEWTON FORMULATION
                         Version 1.1.4 4/01/2018
              BASED ON MODFLOW-2005 Version 1.12.0 02/03/2017
                      SWR1 Version 1.04.0 09/15/2016

              PROCESSES: GWF and OBS
              PACKAGES:  BAS, BCF, CHD, DE4, FHB, GAG, GHB,
                         HFB, HUF, LAK LPF, MNW1, MNW2, NWT,
                         PCG, SFR, SIP, UPW, UZF, WEL, SWI, SWT, LMT


        Process            Available Modules
--------------------------------------------------------------------
  Basin Definition: basin
    Cascading Flow: cascade
  Time Series Data: obs, water_use_read, dynamic_param_read
   Potet Solar Rad: soltab
  Temperature Dist: temp_1sta, temp_laps, temp_dist2, climate_hru
       Precip Dist: precip_1sta, precip_laps, precip_dist2,
                    climate_hru
Temp & Precip Dist: xyz_dist, ide_dist
    Solar Rad Dist: ccsolrad, ddsolrad, climate_hru
Transpiration Dist: transp_tindex, climate_hru, transp_frost
      Potential ET: potet_hamon, potet_jh, potet_pan, climate_hru,
                    potet_hs, potet_pt, potet_pm, potet_pm_sta
      Interception: intcp
     Snow Dynamics: snowcomp
    Surface Runoff: srunoff_smidx, srunoff_carea
         Soil Zone: soilzone
       Groundwater: gwflow
Streamflow Routing: strmflow, strmflow_in_out, muskingum,
                    muskingum_lake
Stream Temperature: stream_temp
    Output Summary: basin_sum, subbasin, map_results, prms_summary,
                    nhru_summary, nsub_summary, water_balance
                    basin_summary, nsegment_summary
     Preprocessing: write_climate_hru, frost_date
--------------------------------------------------------------------


    Active modules listed in the order in which they are called

        Process                   Module                Version Date
====================================================================
GSFLOW Computation Order       gsflow_prms                2018-06-25
Basin Definition               basin                      2018-04-06
Cascading Flow                 cascade                    2018-05-25
Common States and Fluxes       climateflow                2018-04-25
Potential Solar Radiation      soltab                     2016-09-09
PRMS Set Time Variables        prms_time                  2015-03-31
Time Series Data               obs                        2018-02-23
Time Series Data               dynamic_param_read         2018-04-18
Temperature Distribution       temp_laps                  2018-01-16
Precipitation Distribution     precip_1sta                2016-10-21
Solar Radiation Distribution   ddsolrad                   2016-11-03
Transpiration Distribution     transp_tindex              2015-01-06
Potential Evapotranspiration   potet_jh                   2016-05-10
Canopy Interception            intcp                      2018-02-26
Snow Dynamics                  snowcomp                   2018-05-04
Surface Runoff                 srunoff_smidx              2018-04-25
Soil Zone Computations         soilzone                   2018-04-25
GSFLOW PRMS to MODFLOW         gsflow_prms2mf             2017-11-15
GSFLOW MODFLOW to PRMS         gsflow_mf2prms             2017-11-15
GSFLOW Output Budget Summary   gsflow_budget              2018-03-02
GSFLOW Output CSV Summary      gsflow_sum                 2018-02-12
Output Summary                 map_results                2018-04-25
Output Summary                 subbasin                   2018-04-25
====================================================================
GSFLOW MODFLOW main            gsflow_modflow             2018-06-14
====================================================================
MODFLOW Packages
====================================================================
UZF-NWT Package                gwf2uzf1_NWT               2017-03-08
SFR-NWT Package                gwf2sfr7_NWT               2017-03-08
====================================================================

Using NAME file: yucaipa.nam

Using Solver Package: NWT 

Using Control File: Yuc_gsflow.control

Using Parameter File: ./input/yuc_param_with_recharge_new_JH_coefs.param

Writing var_init_file: prms_ic_0.ic

Writing PRMS Water Budget File: ./output2/Yuc_PRMS.out

mxsziter = 500

Tolerance check for gvr_hru_pct:  0.5000000D-05

Percent difference between GVR mapping and active model domain:  0.0000000D+00

Water Budget print frequency is:   1

Writing GSFLOW Water Budget File: ./output2/Yuc_gsflow.out

Writing GSFLOW CSV File: ./output2/gsflow.csv

Simulation time period: 1990/01/01 - 2014/12/31

====================================================================

 
 ***WARNING***
Non-zero values were specified for precipitation,
streamflow, and ET for streams in MODFLOW input files.
These values are set to zero for GSFLOW simulations
 
 
Date: 1990/01/01; Stress:517; Step:     1; Simulation step:51137
                  MF iterations:       30; SZ iterations:     30

Date: 1990/01/02; Stress:517; Step:     2; Simulation step:51138
                  MF iterations:       14; SZ iterations:     14

Date: 1990/01/03; Stress:517; Step:     3; Simulation step:51139
                  MF iterations:       12; SZ iterations:     12

Date: 1990/01/04; Stress:517; Step:     4; Simulation step:51140
                  MF iterations:        3; SZ iterations:      3

Date: 1990/01/05; Stress:517; Step:     5; Simulation step:51141
                  MF iterations:        3; SZ iterations:      3

Date: 1990/01/06; Stress:517; Step:     6; Simulation step:51142
                  MF iterations:        3; SZ iterations:      3

Date: 1990/01/07; Stress:517; Step:     7; Simulation step:51143
                  MF iterations:        3; SZ iterations:      3

Date: 1990/01/08; Stress:517; Step:     8; Simulation step:51144
                  MF iterations:        3; SZ iterations:      3

Date: 1990/01/09; Stress:517; Step:     9; Simulation step:51145
                  MF iterations:        3; SZ iterations:      3

Date: 1990/01/10; Stress:517; Step:    10; Simulation step:51146
                  MF iterations:        2; SZ iterations:      2

Date: 1990/01/11; Stress:517; Step:    11; Simulation step:51147
                  MF iterations:        2; SZ iterations:      2

Date: 1990/01/12; Stress:517; Step:    12; Simulation step:51148
                  MF iterations:        2; SZ iterations:      2

Date: 1990/01/13; Stress:517; Step:    13; Simulation step:51149
                  MF iterations:        5; SZ iterations:      5

Date: 1990/01/14; Stress:517; Step:    14; Simulation step:51150
                  MF iterations:       14; SZ iterations:     14

Date: 1990/01/15; Stress:517; Step:    15; Simulation step:51151
                  MF iterations:       14; SZ iterations:     14

Date: 1990/01/16; Stress:517; Step:    16; Simulation step:51152
                  MF iterations:        4; SZ iterations:      4

Date: 1990/01/17; Stress:517; Step:    17; Simulation step:51153
                  MF iterations:       14; SZ iterations:     14

Date: 1990/01/18; Stress:517; Step:    18; Simulation step:51154
                  MF iterations:       14; SZ iterations:     14

Date: 1990/01/19; Stress:517; Step:    19; Simulation step:51155
                  MF iterations:        3; SZ iterations:      3

Date: 1990/01/20; Stress:517; Step:    20; Simulation step:51156
                  MF iterations:        3; SZ iterations:      3

Date: 1990/01/21; Stress:517; Step:    21; Simulation step:51157
                  MF iterations:        3; SZ iterations:      3

Date: 1990/01/22; Stress:517; Step:    22; Simulation step:51158
                  MF iterations:        3; SZ iterations:      3

Date: 1990/01/23; Stress:517; Step:    23; Simulation step:51159
                  MF iterations:        3; SZ iterations:      3

Date: 1990/01/24; Stress:517; Step:    24; Simulation step:51160
                  MF iterations:        3; SZ iterations:      3

Date: 1990/01/25; Stress:517; Step:    25; Simulation step:51161
                  MF iterations:        3; SZ iterations:      3

Date: 1990/01/26; Stress:517; Step:    26; Simulation step:51162
                  MF iterations:        3; SZ iterations:      3

Date: 1990/01/27; Stress:517; Step:    27; Simulation step:51163
                  MF iterations:        3; SZ iterations:      3

Date: 1990/01/28; Stress:517; Step:    28; Simulation step:51164
                  MF iterations:        3; SZ iterations:      3

Date: 1990/01/29; Stress:517; Step:    29; Simulation step:51165
                  MF iterations:        3; SZ iterations:      3

Date: 1990/01/30; Stress:517; Step:    30; Simulation step:51166
                  MF iterations:        3; SZ iterations:      3

Date: 1990/01/31; Stress:517; Step:    31; Simulation step:51167
                  MF iterations:       13; SZ iterations:     13

 
 ***WARNING***
Non-zero values were specified for precipitation,
streamflow, and ET for streams in MODFLOW input files.
These values are set to zero for GSFLOW simulations
 
 
Date: 1990/02/01; Stress:518; Step:     1; Simulation step:51168
                  MF iterations:       10; SZ iterations:     10

Date: 1990/02/02; Stress:518; Step:     2; Simulation step:51169
                  MF iterations:        4; SZ iterations:      4

Date: 1990/02/03; Stress:518; Step:     3; Simulation step:51170
                  MF iterations:        4; SZ iterations:      4

Date: 1990/02/04; Stress:518; Step:     4; Simulation step:51171
                  MF iterations:        3; SZ iterations:      3

Date: 1990/02/05; Stress:518; Step:     5; Simulation step:51172
                  MF iterations:        3; SZ iterations:      3

Date: 1990/02/06; Stress:518; Step:     6; Simulation step:51173
                  MF iterations:        3; SZ iterations:      3

Date: 1990/02/07; Stress:518; Step:     7; Simulation step:51174
                  MF iterations:        3; SZ iterations:      3

Date: 1990/02/08; Stress:518; Step:     8; Simulation step:51175
                  MF iterations:        3; SZ iterations:      3

Date: 1990/02/09; Stress:518; Step:     9; Simulation step:51176
                  MF iterations:        3; SZ iterations:      3

Date: 1990/02/10; Stress:518; Step:    10; Simulation step:51177
                  MF iterations:        3; SZ iterations:      3

Date: 1990/02/11; Stress:518; Step:    11; Simulation step:51178
                  MF iterations:        3; SZ iterations:      3

Date: 1990/02/12; Stress:518; Step:    12; Simulation step:51179
                  MF iterations:        3; SZ iterations:      3

Date: 1990/02/13; Stress:518; Step:    13; Simulation step:51180
                  MF iterations:        3; SZ iterations:      3

Date: 1990/02/14; Stress:518; Step:    14; Simulation step:51181
                  MF iterations:        3; SZ iterations:      3

Date: 1990/02/15; Stress:518; Step:    15; Simulation step:51182
                  MF iterations:        3; SZ iterations:      3

Date: 1990/02/16; Stress:518; Step:    16; Simulation step:51183
                  MF iterations:        3; SZ iterations:      3

Date: 1990/02/17; Stress:518; Step:    17; Simulation step:51184
                  MF iterations:       20; SZ iterations:     20

Date: 1990/02/18; Stress:518; Step:    18; Simulation step:51185
                  MF iterations:       10; SZ iterations:     10

Date: 1990/02/19; Stress:518; Step:    19; Simulation step:51186
                  MF iterations:       14; SZ iterations:     14

Date: 1990/02/20; Stress:518; Step:    20; Simulation step:51187
                  MF iterations:        9; SZ iterations:      9

Date: 1990/02/21; Stress:518; Step:    21; Simulation step:51188
                  MF iterations:        4; SZ iterations:      4

Date: 1990/02/22; Stress:518; Step:    22; Simulation step:51189
                  MF iterations:        3; SZ iterations:      3

Date: 1990/02/23; Stress:518; Step:    23; Simulation step:51190
                  MF iterations:        3; SZ iterations:      3

Date: 1990/02/24; Stress:518; Step:    24; Simulation step:51191
                  MF iterations:        3; SZ iterations:      3

Date: 1990/02/25; Stress:518; Step:    25; Simulation step:51192
                  MF iterations:        3; SZ iterations:      3

Date: 1990/02/26; Stress:518; Step:    26; Simulation step:51193
                  MF iterations:        3; SZ iterations:      3

Date: 1990/02/27; Stress:518; Step:    27; Simulation step:51194
                  MF iterations:        3; SZ iterations:      3

Date: 1990/02/28; Stress:518; Step:    28; Simulation step:51195
                  MF iterations:        3; SZ iterations:      3

 
 ***WARNING***
Non-zero values were specified for precipitation,
streamflow, and ET for streams in MODFLOW input files.
These values are set to zero for GSFLOW simulations
 
 
Date: 1990/03/01; Stress:519; Step:     1; Simulation step:51196
                  MF iterations:        3; SZ iterations:      3

Date: 1990/03/02; Stress:519; Step:     2; Simulation step:51197
                  MF iterations:        3; SZ iterations:      3

Date: 1990/03/03; Stress:519; Step:     3; Simulation step:51198
                  MF iterations:        3; SZ iterations:      3

Date: 1990/03/04; Stress:519; Step:     4; Simulation step:51199
                  MF iterations:        3; SZ iterations:      3

Date: 1990/03/05; Stress:519; Step:     5; Simulation step:51200
                  MF iterations:        5; SZ iterations:      5

Date: 1990/03/06; Stress:519; Step:     6; Simulation step:51201
                  MF iterations:        5; SZ iterations:      5

Date: 1990/03/07; Stress:519; Step:     7; Simulation step:51202
                  MF iterations:        3; SZ iterations:      3

Date: 1990/03/08; Stress:519; Step:     8; Simulation step:51203
                  MF iterations:        3; SZ iterations:      3

Date: 1990/03/09; Stress:519; Step:     9; Simulation step:51204
                  MF iterations:        3; SZ iterations:      3

Date: 1990/03/10; Stress:519; Step:    10; Simulation step:51205
                  MF iterations:        3; SZ iterations:      3

Date: 1990/03/11; Stress:519; Step:    11; Simulation step:51206
                  MF iterations:       11; SZ iterations:     11

Date: 1990/03/12; Stress:519; Step:    12; Simulation step:51207
                  MF iterations:       10; SZ iterations:     10

Date: 1990/03/13; Stress:519; Step:    13; Simulation step:51208
                  MF iterations:       10; SZ iterations:     10

Date: 1990/03/14; Stress:519; Step:    14; Simulation step:51209
                  MF iterations:       10; SZ iterations:     10

Date: 1990/03/15; Stress:519; Step:    15; Simulation step:51210
                  MF iterations:        3; SZ iterations:      3

Date: 1990/03/16; Stress:519; Step:    16; Simulation step:51211
                  MF iterations:        3; SZ iterations:      3

Date: 1990/03/17; Stress:519; Step:    17; Simulation step:51212
                  MF iterations:        3; SZ iterations:      3

Date: 1990/03/18; Stress:519; Step:    18; Simulation step:51213
                  MF iterations:        3; SZ iterations:      3

Date: 1990/03/19; Stress:519; Step:    19; Simulation step:51214
                  MF iterations:        3; SZ iterations:      3

Date: 1990/03/20; Stress:519; Step:    20; Simulation step:51215
                  MF iterations:        3; SZ iterations:      3

Date: 1990/03/21; Stress:519; Step:    21; Simulation step:51216
                  MF iterations:        3; SZ iterations:      3

Date: 1990/03/22; Stress:519; Step:    22; Simulation step:51217
                  MF iterations:        3; SZ iterations:      3

Date: 1990/03/23; Stress:519; Step:    23; Simulation step:51218
                  MF iterations:        3; SZ iterations:      3

Date: 1990/03/24; Stress:519; Step:    24; Simulation step:51219
                  MF iterations:        3; SZ iterations:      3

Date: 1990/03/25; Stress:519; Step:    25; Simulation step:51220
                  MF iterations:        3; SZ iterations:      3

Date: 1990/03/26; Stress:519; Step:    26; Simulation step:51221
                  MF iterations:        4; SZ iterations:      4

Date: 1990/03/27; Stress:519; Step:    27; Simulation step:51222
                  MF iterations:        3; SZ iterations:      3

Date: 1990/03/28; Stress:519; Step:    28; Simulation step:51223
                  MF iterations:        3; SZ iterations:      3

Date: 1990/03/29; Stress:519; Step:    29; Simulation step:51224
                  MF iterations:        5; SZ iterations:      5

Date: 1990/03/30; Stress:519; Step:    30; Simulation step:51225
                  MF iterations:        5; SZ iterations:      5

Date: 1990/03/31; Stress:519; Step:    31; Simulation step:51226
                  MF iterations:        3; SZ iterations:      3

 
 ***WARNING***
Non-zero values were specified for precipitation,
streamflow, and ET for streams in MODFLOW input files.
These values are set to zero for GSFLOW simulations
 
 
Date: 1990/04/01; Stress:520; Step:     1; Simulation step:51227
                  MF iterations:        3; SZ iterations:      3

Date: 1990/04/02; Stress:520; Step:     2; Simulation step:51228
                  MF iterations:        3; SZ iterations:      3

Date: 1990/04/03; Stress:520; Step:     3; Simulation step:51229
                  MF iterations:        3; SZ iterations:      3

Date: 1990/04/04; Stress:520; Step:     4; Simulation step:51230
                  MF iterations:       10; SZ iterations:     10

Date: 1990/04/05; Stress:520; Step:     5; Simulation step:51231
                  MF iterations:        9; SZ iterations:      9

Date: 1990/04/06; Stress:520; Step:     6; Simulation step:51232
                  MF iterations:        3; SZ iterations:      3

Date: 1990/04/07; Stress:520; Step:     7; Simulation step:51233
                  MF iterations:        3; SZ iterations:      3

Date: 1990/04/08; Stress:520; Step:     8; Simulation step:51234
                  MF iterations:        3; SZ iterations:      3

Date: 1990/04/09; Stress:520; Step:     9; Simulation step:51235
                  MF iterations:        3; SZ iterations:      3

Date: 1990/04/10; Stress:520; Step:    10; Simulation step:51236
                  MF iterations:        3; SZ iterations:      3

Date: 1990/04/11; Stress:520; Step:    11; Simulation step:51237
                  MF iterations:        3; SZ iterations:      3

Date: 1990/04/12; Stress:520; Step:    12; Simulation step:51238
                  MF iterations:        3; SZ iterations:      3

Date: 1990/04/13; Stress:520; Step:    13; Simulation step:51239
                  MF iterations:        3; SZ iterations:      3

Date: 1990/04/14; Stress:520; Step:    14; Simulation step:51240
                  MF iterations:        3; SZ iterations:      3

Date: 1990/04/15; Stress:520; Step:    15; Simulation step:51241
                  MF iterations:        3; SZ iterations:      3

Date: 1990/04/16; Stress:520; Step:    16; Simulation step:51242
                  MF iterations:        3; SZ iterations:      3

Date: 1990/04/17; Stress:520; Step:    17; Simulation step:51243
                  MF iterations:       11; SZ iterations:     11

Date: 1990/04/18; Stress:520; Step:    18; Simulation step:51244
                  MF iterations:       12; SZ iterations:     12

Date: 1990/04/19; Stress:520; Step:    19; Simulation step:51245
                  MF iterations:        3; SZ iterations:      3

Date: 1990/04/20; Stress:520; Step:    20; Simulation step:51246
                  MF iterations:        3; SZ iterations:      3

Date: 1990/04/21; Stress:520; Step:    21; Simulation step:51247
                  MF iterations:        3; SZ iterations:      3

Date: 1990/04/22; Stress:520; Step:    22; Simulation step:51248
                  MF iterations:        3; SZ iterations:      3

Date: 1990/04/23; Stress:520; Step:    23; Simulation step:51249
                  MF iterations:       11; SZ iterations:     11

Date: 1990/04/24; Stress:520; Step:    24; Simulation step:51250
                  MF iterations:       11; SZ iterations:     11

Date: 1990/04/25; Stress:520; Step:    25; Simulation step:51251
                  MF iterations:        3; SZ iterations:      3

Date: 1990/04/26; Stress:520; Step:    26; Simulation step:51252
                  MF iterations:        3; SZ iterations:      3

Date: 1990/04/27; Stress:520; Step:    27; Simulation step:51253
                  MF iterations:        5; SZ iterations:      5

Date: 1990/04/28; Stress:520; Step:    28; Simulation step:51254
                  MF iterations:        3; SZ iterations:      3

Date: 1990/04/29; Stress:520; Step:    29; Simulation step:51255
                  MF iterations:        3; SZ iterations:      3

Date: 1990/04/30; Stress:520; Step:    30; Simulation step:51256
                  MF iterations:        3; SZ iterations:      3

 
 ***WARNING***
Non-zero values were specified for precipitation,
streamflow, and ET for streams in MODFLOW input files.
These values are set to zero for GSFLOW simulations
 
 
Date: 1990/05/01; Stress:521; Step:     1; Simulation step:51257
                  MF iterations:        3; SZ iterations:      3

Date: 1990/05/02; Stress:521; Step:     2; Simulation step:51258
                  MF iterations:        5; SZ iterations:      5

Date: 1990/05/03; Stress:521; Step:     3; Simulation step:51259
                  MF iterations:        3; SZ iterations:      3

Date: 1990/05/04; Stress:521; Step:     4; Simulation step:51260
                  MF iterations:        3; SZ iterations:      3

Date: 1990/05/05; Stress:521; Step:     5; Simulation step:51261
                  MF iterations:        3; SZ iterations:      3

Date: 1990/05/06; Stress:521; Step:     6; Simulation step:51262
                  MF iterations:        3; SZ iterations:      3

Date: 1990/05/07; Stress:521; Step:     7; Simulation step:51263
                  MF iterations:        3; SZ iterations:      3

Date: 1990/05/08; Stress:521; Step:     8; Simulation step:51264
                  MF iterations:        3; SZ iterations:      3

Date: 1990/05/09; Stress:521; Step:     9; Simulation step:51265
                  MF iterations:        7; SZ iterations:      7

Date: 1990/05/10; Stress:521; Step:    10; Simulation step:51266
                  MF iterations:        5; SZ iterations:      5

Date: 1990/05/11; Stress:521; Step:    11; Simulation step:51267
                  MF iterations:        3; SZ iterations:      3

Date: 1990/05/12; Stress:521; Step:    12; Simulation step:51268
                  MF iterations:        3; SZ iterations:      3

Date: 1990/05/13; Stress:521; Step:    13; Simulation step:51269
                  MF iterations:        3; SZ iterations:      3

Date: 1990/05/14; Stress:521; Step:    14; Simulation step:51270
                  MF iterations:        3; SZ iterations:      3

Date: 1990/05/15; Stress:521; Step:    15; Simulation step:51271
                  MF iterations:        3; SZ iterations:      3

Date: 1990/05/16; Stress:521; Step:    16; Simulation step:51272
                  MF iterations:        9; SZ iterations:      9

Date: 1990/05/17; Stress:521; Step:    17; Simulation step:51273
                  MF iterations:        3; SZ iterations:      3

Date: 1990/05/18; Stress:521; Step:    18; Simulation step:51274
                  MF iterations:        6; SZ iterations:      6

Date: 1990/05/19; Stress:521; Step:    19; Simulation step:51275
                  MF iterations:        3; SZ iterations:      3

Date: 1990/05/20; Stress:521; Step:    20; Simulation step:51276
                  MF iterations:        3; SZ iterations:      3

Date: 1990/05/21; Stress:521; Step:    21; Simulation step:51277
                  MF iterations:        3; SZ iterations:      3

Date: 1990/05/22; Stress:521; Step:    22; Simulation step:51278
                  MF iterations:        3; SZ iterations:      3

Date: 1990/05/23; Stress:521; Step:    23; Simulation step:51279
                  MF iterations:       28; SZ iterations:     28

Date: 1990/05/24; Stress:521; Step:    24; Simulation step:51280
                  MF iterations:        3; SZ iterations:      3

Date: 1990/05/25; Stress:521; Step:    25; Simulation step:51281
                  MF iterations:        3; SZ iterations:      3

Date: 1990/05/26; Stress:521; Step:    26; Simulation step:51282
                  MF iterations:        3; SZ iterations:      3

Date: 1990/05/27; Stress:521; Step:    27; Simulation step:51283
                  MF iterations:        5; SZ iterations:      5

Date: 1990/05/28; Stress:521; Step:    28; Simulation step:51284
                  MF iterations:       15; SZ iterations:     15

Date: 1990/05/29; Stress:521; Step:    29; Simulation step:51285
                  MF iterations:       15; SZ iterations:     15

Date: 1990/05/30; Stress:521; Step:    30; Simulation step:51286
                  MF iterations:        3; SZ iterations:      3

Date: 1990/05/31; Stress:521; Step:    31; Simulation step:51287
                  MF iterations:        3; SZ iterations:      3

 
 ***WARNING***
Non-zero values were specified for precipitation,
streamflow, and ET for streams in MODFLOW input files.
These values are set to zero for GSFLOW simulations
 
 
Date: 1990/06/01; Stress:522; Step:     1; Simulation step:51288
                  MF iterations:        3; SZ iterations:      3

Date: 1990/06/02; Stress:522; Step:     2; Simulation step:51289
                  MF iterations:        3; SZ iterations:      3

Date: 1990/06/03; Stress:522; Step:     3; Simulation step:51290
                  MF iterations:        3; SZ iterations:      3

Date: 1990/06/04; Stress:522; Step:     4; Simulation step:51291
                  MF iterations:        3; SZ iterations:      3

Date: 1990/06/05; Stress:522; Step:     5; Simulation step:51292
                  MF iterations:        5; SZ iterations:      5

Date: 1990/06/06; Stress:522; Step:     6; Simulation step:51293
                  MF iterations:        3; SZ iterations:      3

Date: 1990/06/07; Stress:522; Step:     7; Simulation step:51294
                  MF iterations:        3; SZ iterations:      3

Date: 1990/06/08; Stress:522; Step:     8; Simulation step:51295
                  MF iterations:        3; SZ iterations:      3

Date: 1990/06/09; Stress:522; Step:     9; Simulation step:51296
                  MF iterations:        6; SZ iterations:      6

Date: 1990/06/10; Stress:522; Step:    10; Simulation step:51297
                  MF iterations:        3; SZ iterations:      3

Date: 1990/06/11; Stress:522; Step:    11; Simulation step:51298
                  MF iterations:        3; SZ iterations:      3

Date: 1990/06/12; Stress:522; Step:    12; Simulation step:51299
                  MF iterations:        3; SZ iterations:      3

Date: 1990/06/13; Stress:522; Step:    13; Simulation step:51300
                  MF iterations:        3; SZ iterations:      3

Date: 1990/06/14; Stress:522; Step:    14; Simulation step:51301
                  MF iterations:        3; SZ iterations:      3

Date: 1990/06/15; Stress:522; Step:    15; Simulation step:51302
                  MF iterations:        3; SZ iterations:      3

Date: 1990/06/16; Stress:522; Step:    16; Simulation step:51303
                  MF iterations:        3; SZ iterations:      3

Date: 1990/06/17; Stress:522; Step:    17; Simulation step:51304
                  MF iterations:        3; SZ iterations:      3

Date: 1990/06/18; Stress:522; Step:    18; Simulation step:51305
                  MF iterations:        3; SZ iterations:      3

Date: 1990/06/19; Stress:522; Step:    19; Simulation step:51306
                  MF iterations:        3; SZ iterations:      3

Date: 1990/06/20; Stress:522; Step:    20; Simulation step:51307
                  MF iterations:        3; SZ iterations:      3

Date: 1990/06/21; Stress:522; Step:    21; Simulation step:51308
                  MF iterations:        3; SZ iterations:      3

Date: 1990/06/22; Stress:522; Step:    22; Simulation step:51309
                  MF iterations:        3; SZ iterations:      3

Date: 1990/06/23; Stress:522; Step:    23; Simulation step:51310
                  MF iterations:        3; SZ iterations:      3

Date: 1990/06/24; Stress:522; Step:    24; Simulation step:51311
                  MF iterations:        3; SZ iterations:      3

Date: 1990/06/25; Stress:522; Step:    25; Simulation step:51312
                  MF iterations:        5; SZ iterations:      5

Date: 1990/06/26; Stress:522; Step:    26; Simulation step:51313
                  MF iterations:        3; SZ iterations:      3

Date: 1990/06/27; Stress:522; Step:    27; Simulation step:51314
                  MF iterations:        3; SZ iterations:      3

Date: 1990/06/28; Stress:522; Step:    28; Simulation step:51315
                  MF iterations:        3; SZ iterations:      3

Date: 1990/06/29; Stress:522; Step:    29; Simulation step:51316
                  MF iterations:        7; SZ iterations:      7

Date: 1990/06/30; Stress:522; Step:    30; Simulation step:51317
                  MF iterations:        3; SZ iterations:      3

 
 ***WARNING***
Non-zero values were specified for precipitation,
streamflow, and ET for streams in MODFLOW input files.
These values are set to zero for GSFLOW simulations
 
 
Date: 1990/07/01; Stress:523; Step:     1; Simulation step:51318
                  MF iterations:        3; SZ iterations:      3

Date: 1990/07/02; Stress:523; Step:     2; Simulation step:51319
                  MF iterations:        3; SZ iterations:      3

Date: 1990/07/03; Stress:523; Step:     3; Simulation step:51320
                  MF iterations:        3; SZ iterations:      3

Date: 1990/07/04; Stress:523; Step:     4; Simulation step:51321
                  MF iterations:        3; SZ iterations:      3

Date: 1990/07/05; Stress:523; Step:     5; Simulation step:51322
                  MF iterations:        5; SZ iterations:      5

Date: 1990/07/06; Stress:523; Step:     6; Simulation step:51323
                  MF iterations:        3; SZ iterations:      3

Date: 1990/07/07; Stress:523; Step:     7; Simulation step:51324
                  MF iterations:        3; SZ iterations:      3

Date: 1990/07/08; Stress:523; Step:     8; Simulation step:51325
                  MF iterations:        3; SZ iterations:      3

Date: 1990/07/09; Stress:523; Step:     9; Simulation step:51326
                  MF iterations:        3; SZ iterations:      3

Date: 1990/07/10; Stress:523; Step:    10; Simulation step:51327
                  MF iterations:        3; SZ iterations:      3

Date: 1990/07/11; Stress:523; Step:    11; Simulation step:51328
                  MF iterations:       16; SZ iterations:     16

Date: 1990/07/12; Stress:523; Step:    12; Simulation step:51329
                  MF iterations:       14; SZ iterations:     14

Date: 1990/07/13; Stress:523; Step:    13; Simulation step:51330
                  MF iterations:        3; SZ iterations:      3

Date: 1990/07/14; Stress:523; Step:    14; Simulation step:51331
                  MF iterations:       11; SZ iterations:     11

Date: 1990/07/15; Stress:523; Step:    15; Simulation step:51332
                  MF iterations:        3; SZ iterations:      3

Date: 1990/07/16; Stress:523; Step:    16; Simulation step:51333
                  MF iterations:        3; SZ iterations:      3

Date: 1990/07/17; Stress:523; Step:    17; Simulation step:51334
                  MF iterations:        7; SZ iterations:      7

Date: 1990/07/18; Stress:523; Step:    18; Simulation step:51335
                  MF iterations:       11; SZ iterations:     11

Date: 1990/07/19; Stress:523; Step:    19; Simulation step:51336
                  MF iterations:        3; SZ iterations:      3

Date: 1990/07/20; Stress:523; Step:    20; Simulation step:51337
                  MF iterations:        3; SZ iterations:      3

Date: 1990/07/21; Stress:523; Step:    21; Simulation step:51338
                  MF iterations:        3; SZ iterations:      3

Date: 1990/07/22; Stress:523; Step:    22; Simulation step:51339
                  MF iterations:        3; SZ iterations:      3

Date: 1990/07/23; Stress:523; Step:    23; Simulation step:51340
                  MF iterations:        3; SZ iterations:      3

Date: 1990/07/24; Stress:523; Step:    24; Simulation step:51341
                  MF iterations:        3; SZ iterations:      3

Date: 1990/07/25; Stress:523; Step:    25; Simulation step:51342
                  MF iterations:        3; SZ iterations:      3

Date: 1990/07/26; Stress:523; Step:    26; Simulation step:51343
                  MF iterations:        3; SZ iterations:      3

Date: 1990/07/27; Stress:523; Step:    27; Simulation step:51344
                  MF iterations:        3; SZ iterations:      3

Date: 1990/07/28; Stress:523; Step:    28; Simulation step:51345
                  MF iterations:        3; SZ iterations:      3

Date: 1990/07/29; Stress:523; Step:    29; Simulation step:51346
                  MF iterations:        5; SZ iterations:      5

Date: 1990/07/30; Stress:523; Step:    30; Simulation step:51347
                  MF iterations:        3; SZ iterations:      3

Date: 1990/07/31; Stress:523; Step:    31; Simulation step:51348
                  MF iterations:        3; SZ iterations:      3

 
 ***WARNING***
Non-zero values were specified for precipitation,
streamflow, and ET for streams in MODFLOW input files.
These values are set to zero for GSFLOW simulations
 
 
Date: 1990/08/01; Stress:524; Step:     1; Simulation step:51349
                  MF iterations:        8; SZ iterations:      8

Date: 1990/08/02; Stress:524; Step:     2; Simulation step:51350
                  MF iterations:        3; SZ iterations:      3

Date: 1990/08/03; Stress:524; Step:     3; Simulation step:51351
                  MF iterations:        3; SZ iterations:      3

Date: 1990/08/04; Stress:524; Step:     4; Simulation step:51352
                  MF iterations:        3; SZ iterations:      3

Date: 1990/08/05; Stress:524; Step:     5; Simulation step:51353
                  MF iterations:        3; SZ iterations:      3

Date: 1990/08/06; Stress:524; Step:     6; Simulation step:51354
                  MF iterations:        3; SZ iterations:      3

Date: 1990/08/07; Stress:524; Step:     7; Simulation step:51355
                  MF iterations:        3; SZ iterations:      3

Date: 1990/08/08; Stress:524; Step:     8; Simulation step:51356
                  MF iterations:        3; SZ iterations:      3

Date: 1990/08/09; Stress:524; Step:     9; Simulation step:51357
                  MF iterations:        5; SZ iterations:      5

Date: 1990/08/10; Stress:524; Step:    10; Simulation step:51358
                  MF iterations:        5; SZ iterations:      5

Date: 1990/08/11; Stress:524; Step:    11; Simulation step:51359
                  MF iterations:        7; SZ iterations:      7

Date: 1990/08/12; Stress:524; Step:    12; Simulation step:51360
                  MF iterations:        3; SZ iterations:      3

Date: 1990/08/13; Stress:524; Step:    13; Simulation step:51361
                  MF iterations:        3; SZ iterations:      3

Date: 1990/08/14; Stress:524; Step:    14; Simulation step:51362
                  MF iterations:        3; SZ iterations:      3

Date: 1990/08/15; Stress:524; Step:    15; Simulation step:51363
                  MF iterations:        3; SZ iterations:      3

Date: 1990/08/16; Stress:524; Step:    16; Simulation step:51364
                  MF iterations:        3; SZ iterations:      3

Date: 1990/08/17; Stress:524; Step:    17; Simulation step:51365
                  MF iterations:        5; SZ iterations:      5

Date: 1990/08/18; Stress:524; Step:    18; Simulation step:51366
                  MF iterations:        3; SZ iterations:      3

Date: 1990/08/19; Stress:524; Step:    19; Simulation step:51367
                  MF iterations:       10; SZ iterations:     10

Date: 1990/08/20; Stress:524; Step:    20; Simulation step:51368
                  MF iterations:        3; SZ iterations:      3

Date: 1990/08/21; Stress:524; Step:    21; Simulation step:51369
                  MF iterations:        3; SZ iterations:      3

Date: 1990/08/22; Stress:524; Step:    22; Simulation step:51370
                  MF iterations:        3; SZ iterations:      3

Date: 1990/08/23; Stress:524; Step:    23; Simulation step:51371
                  MF iterations:        5; SZ iterations:      5

Date: 1990/08/24; Stress:524; Step:    24; Simulation step:51372
                  MF iterations:        3; SZ iterations:      3

Date: 1990/08/25; Stress:524; Step:    25; Simulation step:51373
                  MF iterations:        3; SZ iterations:      3

Date: 1990/08/26; Stress:524; Step:    26; Simulation step:51374
                  MF iterations:        3; SZ iterations:      3

Date: 1990/08/27; Stress:524; Step:    27; Simulation step:51375
                  MF iterations:        3; SZ iterations:      3

Date: 1990/08/28; Stress:524; Step:    28; Simulation step:51376
                  MF iterations:        3; SZ iterations:      3

Date: 1990/08/29; Stress:524; Step:    29; Simulation step:51377
                  MF iterations:        3; SZ iterations:      3

Date: 1990/08/30; Stress:524; Step:    30; Simulation step:51378
                  MF iterations:        3; SZ iterations:      3

Date: 1990/08/31; Stress:524; Step:    31; Simulation step:51379
                  MF iterations:        3; SZ iterations:      3

 
 ***WARNING***
Non-zero values were specified for precipitation,
streamflow, and ET for streams in MODFLOW input files.
These values are set to zero for GSFLOW simulations
 
 
Date: 1990/09/01; Stress:525; Step:     1; Simulation step:51380
                  MF iterations:        5; SZ iterations:      5

Date: 1990/09/02; Stress:525; Step:     2; Simulation step:51381
                  MF iterations:        3; SZ iterations:      3

Date: 1990/09/03; Stress:525; Step:     3; Simulation step:51382
                  MF iterations:        3; SZ iterations:      3

Date: 1990/09/04; Stress:525; Step:     4; Simulation step:51383
                  MF iterations:        6; SZ iterations:      6

Date: 1990/09/05; Stress:525; Step:     5; Simulation step:51384
                  MF iterations:        7; SZ iterations:      7

Date: 1990/09/06; Stress:525; Step:     6; Simulation step:51385
                  MF iterations:        3; SZ iterations:      3

Date: 1990/09/07; Stress:525; Step:     7; Simulation step:51386
                  MF iterations:        3; SZ iterations:      3

Date: 1990/09/08; Stress:525; Step:     8; Simulation step:51387
                  MF iterations:        3; SZ iterations:      3

Date: 1990/09/09; Stress:525; Step:     9; Simulation step:51388
                  MF iterations:        3; SZ iterations:      3

Date: 1990/09/10; Stress:525; Step:    10; Simulation step:51389
                  MF iterations:        3; SZ iterations:      3

Date: 1990/09/11; Stress:525; Step:    11; Simulation step:51390
                  MF iterations:        3; SZ iterations:      3

Date: 1990/09/12; Stress:525; Step:    12; Simulation step:51391
                  MF iterations:        3; SZ iterations:      3

Date: 1990/09/13; Stress:525; Step:    13; Simulation step:51392
                  MF iterations:        3; SZ iterations:      3

Date: 1990/09/14; Stress:525; Step:    14; Simulation step:51393
                  MF iterations:        3; SZ iterations:      3

Date: 1990/09/15; Stress:525; Step:    15; Simulation step:51394
                  MF iterations:        3; SZ iterations:      3

Date: 1990/09/16; Stress:525; Step:    16; Simulation step:51395
                  MF iterations:        3; SZ iterations:      3

Date: 1990/09/17; Stress:525; Step:    17; Simulation step:51396
                  MF iterations:        3; SZ iterations:      3

Date: 1990/09/18; Stress:525; Step:    18; Simulation step:51397
                  MF iterations:        3; SZ iterations:      3

Date: 1990/09/19; Stress:525; Step:    19; Simulation step:51398
                  MF iterations:        3; SZ iterations:      3

Date: 1990/09/20; Stress:525; Step:    20; Simulation step:51399
                  MF iterations:        3; SZ iterations:      3

Date: 1990/09/21; Stress:525; Step:    21; Simulation step:51400
                  MF iterations:        8; SZ iterations:      8

Date: 1990/09/22; Stress:525; Step:    22; Simulation step:51401
                  MF iterations:        3; SZ iterations:      3

Date: 1990/09/23; Stress:525; Step:    23; Simulation step:51402
                  MF iterations:        3; SZ iterations:      3

Date: 1990/09/24; Stress:525; Step:    24; Simulation step:51403
                  MF iterations:        3; SZ iterations:      3

Date: 1990/09/25; Stress:525; Step:    25; Simulation step:51404
                  MF iterations:        3; SZ iterations:      3

Date: 1990/09/26; Stress:525; Step:    26; Simulation step:51405
                  MF iterations:        8; SZ iterations:      8

Date: 1990/09/27; Stress:525; Step:    27; Simulation step:51406
                  MF iterations:        3; SZ iterations:      3

Date: 1990/09/28; Stress:525; Step:    28; Simulation step:51407
                  MF iterations:        3; SZ iterations:      3

Date: 1990/09/29; Stress:525; Step:    29; Simulation step:51408
                  MF iterations:        3; SZ iterations:      3

Date: 1990/09/30; Stress:525; Step:    30; Simulation step:51409
                  MF iterations:        3; SZ iterations:      3

 
 ***WARNING***
Non-zero values were specified for precipitation,
streamflow, and ET for streams in MODFLOW input files.
These values are set to zero for GSFLOW simulations
 
 
Date: 1990/10/01; Stress:526; Step:     1; Simulation step:51410
                  MF iterations:        3; SZ iterations:      3

Date: 1990/10/02; Stress:526; Step:     2; Simulation step:51411
                  MF iterations:        8; SZ iterations:      8

Date: 1990/10/03; Stress:526; Step:     3; Simulation step:51412
                  MF iterations:       10; SZ iterations:     10

Date: 1990/10/04; Stress:526; Step:     4; Simulation step:51413
                  MF iterations:        3; SZ iterations:      3

Date: 1990/10/05; Stress:526; Step:     5; Simulation step:51414
                  MF iterations:        3; SZ iterations:      3

Date: 1990/10/06; Stress:526; Step:     6; Simulation step:51415
                  MF iterations:        3; SZ iterations:      3

Date: 1990/10/07; Stress:526; Step:     7; Simulation step:51416
                  MF iterations:        5; SZ iterations:      5

Date: 1990/10/08; Stress:526; Step:     8; Simulation step:51417
                  MF iterations:        5; SZ iterations:      5

Date: 1990/10/09; Stress:526; Step:     9; Simulation step:51418
                  MF iterations:        3; SZ iterations:      3

Date: 1990/10/10; Stress:526; Step:    10; Simulation step:51419
                  MF iterations:        7; SZ iterations:      7

Date: 1990/10/11; Stress:526; Step:    11; Simulation step:51420
                  MF iterations:        3; SZ iterations:      3

Date: 1990/10/12; Stress:526; Step:    12; Simulation step:51421
                  MF iterations:        3; SZ iterations:      3

Date: 1990/10/13; Stress:526; Step:    13; Simulation step:51422
                  MF iterations:        4; SZ iterations:      4

Date: 1990/10/14; Stress:526; Step:    14; Simulation step:51423
                  MF iterations:       17; SZ iterations:     17

Date: 1990/10/15; Stress:526; Step:    15; Simulation step:51424
                  MF iterations:        3; SZ iterations:      3

Date: 1990/10/16; Stress:526; Step:    16; Simulation step:51425
                  MF iterations:        3; SZ iterations:      3

Date: 1990/10/17; Stress:526; Step:    17; Simulation step:51426
                  MF iterations:        3; SZ iterations:      3

Date: 1990/10/18; Stress:526; Step:    18; Simulation step:51427
                  MF iterations:        3; SZ iterations:      3

Date: 1990/10/19; Stress:526; Step:    19; Simulation step:51428
                  MF iterations:        3; SZ iterations:      3

Date: 1990/10/20; Stress:526; Step:    20; Simulation step:51429
                  MF iterations:        3; SZ iterations:      3

Date: 1990/10/21; Stress:526; Step:    21; Simulation step:51430
                  MF iterations:        3; SZ iterations:      3

Date: 1990/10/22; Stress:526; Step:    22; Simulation step:51431
                  MF iterations:        3; SZ iterations:      3

Date: 1990/10/23; Stress:526; Step:    23; Simulation step:51432
                  MF iterations:        5; SZ iterations:      5

Date: 1990/10/24; Stress:526; Step:    24; Simulation step:51433
                  MF iterations:        3; SZ iterations:      3

Date: 1990/10/25; Stress:526; Step:    25; Simulation step:51434
                  MF iterations:        3; SZ iterations:      3

Date: 1990/10/26; Stress:526; Step:    26; Simulation step:51435
                  MF iterations:        3; SZ iterations:      3

Date: 1990/10/27; Stress:526; Step:    27; Simulation step:51436
                  MF iterations:        3; SZ iterations:      3

Date: 1990/10/28; Stress:526; Step:    28; Simulation step:51437
                  MF iterations:        3; SZ iterations:      3

Date: 1990/10/29; Stress:526; Step:    29; Simulation step:51438
                  MF iterations:        3; SZ iterations:      3

Date: 1990/10/30; Stress:526; Step:    30; Simulation step:51439
                  MF iterations:        3; SZ iterations:      3

Date: 1990/10/31; Stress:526; Step:    31; Simulation step:51440
                  MF iterations:        3; SZ iterations:      3

 
 ***WARNING***
Non-zero values were specified for precipitation,
streamflow, and ET for streams in MODFLOW input files.
These values are set to zero for GSFLOW simulations
 
 
Date: 1990/11/01; Stress:527; Step:     1; Simulation step:51441
                  MF iterations:        3; SZ iterations:      3

Date: 1990/11/02; Stress:527; Step:     2; Simulation step:51442
                  MF iterations:        3; SZ iterations:      3

Date: 1990/11/03; Stress:527; Step:     3; Simulation step:51443
                  MF iterations:        3; SZ iterations:      3

Date: 1990/11/04; Stress:527; Step:     4; Simulation step:51444
                  MF iterations:        3; SZ iterations:      3

Date: 1990/11/05; Stress:527; Step:     5; Simulation step:51445
                  MF iterations:        3; SZ iterations:      3

Date: 1990/11/06; Stress:527; Step:     6; Simulation step:51446
                  MF iterations:        3; SZ iterations:      3

Date: 1990/11/07; Stress:527; Step:     7; Simulation step:51447
                  MF iterations:        3; SZ iterations:      3

Date: 1990/11/08; Stress:527; Step:     8; Simulation step:51448
                  MF iterations:        5; SZ iterations:      5

Date: 1990/11/09; Stress:527; Step:     9; Simulation step:51449
                  MF iterations:        3; SZ iterations:      3

Date: 1990/11/10; Stress:527; Step:    10; Simulation step:51450
                  MF iterations:        4; SZ iterations:      4

Date: 1990/11/11; Stress:527; Step:    11; Simulation step:51451
                  MF iterations:        3; SZ iterations:      3

Date: 1990/11/12; Stress:527; Step:    12; Simulation step:51452
                  MF iterations:        3; SZ iterations:      3

Date: 1990/11/13; Stress:527; Step:    13; Simulation step:51453
                  MF iterations:        3; SZ iterations:      3

Date: 1990/11/14; Stress:527; Step:    14; Simulation step:51454
                  MF iterations:        5; SZ iterations:      5

Date: 1990/11/15; Stress:527; Step:    15; Simulation step:51455
                  MF iterations:        3; SZ iterations:      3

Date: 1990/11/16; Stress:527; Step:    16; Simulation step:51456
                  MF iterations:        3; SZ iterations:      3

Date: 1990/11/17; Stress:527; Step:    17; Simulation step:51457
                  MF iterations:        3; SZ iterations:      3

Date: 1990/11/18; Stress:527; Step:    18; Simulation step:51458
                  MF iterations:        3; SZ iterations:      3

Date: 1990/11/19; Stress:527; Step:    19; Simulation step:51459
                  MF iterations:        3; SZ iterations:      3

Date: 1990/11/20; Stress:527; Step:    20; Simulation step:51460
                  MF iterations:       25; SZ iterations:     25

Date: 1990/11/21; Stress:527; Step:    21; Simulation step:51461
                  MF iterations:        5; SZ iterations:      5

Date: 1990/11/22; Stress:527; Step:    22; Simulation step:51462
                  MF iterations:        2; SZ iterations:      2

Date: 1990/11/23; Stress:527; Step:    23; Simulation step:51463
                  MF iterations:        2; SZ iterations:      2

Date: 1990/11/24; Stress:527; Step:    24; Simulation step:51464
                  MF iterations:        2; SZ iterations:      2

Date: 1990/11/25; Stress:527; Step:    25; Simulation step:51465
                  MF iterations:        2; SZ iterations:      2

Date: 1990/11/26; Stress:527; Step:    26; Simulation step:51466
                  MF iterations:        3; SZ iterations:      3

Date: 1990/11/27; Stress:527; Step:    27; Simulation step:51467
                  MF iterations:        2; SZ iterations:      2

Date: 1990/11/28; Stress:527; Step:    28; Simulation step:51468
                  MF iterations:        2; SZ iterations:      2

Date: 1990/11/29; Stress:527; Step:    29; Simulation step:51469
                  MF iterations:        2; SZ iterations:      2

Date: 1990/11/30; Stress:527; Step:    30; Simulation step:51470
                  MF iterations:        3; SZ iterations:      3

 
 ***WARNING***
Non-zero values were specified for precipitation,
streamflow, and ET for streams in MODFLOW input files.
These values are set to zero for GSFLOW simulations
 
 
Date: 1990/12/01; Stress:528; Step:     1; Simulation step:51471
                  MF iterations:        3; SZ iterations:      3

Date: 1990/12/02; Stress:528; Step:     2; Simulation step:51472
                  MF iterations:        3; SZ iterations:      3

Date: 1990/12/03; Stress:528; Step:     3; Simulation step:51473
                  MF iterations:        3; SZ iterations:      3

Date: 1990/12/04; Stress:528; Step:     4; Simulation step:51474
                  MF iterations:        2; SZ iterations:      2

Date: 1990/12/05; Stress:528; Step:     5; Simulation step:51475
                  MF iterations:        2; SZ iterations:      2

Date: 1990/12/06; Stress:528; Step:     6; Simulation step:51476
                  MF iterations:        3; SZ iterations:      3

Date: 1990/12/07; Stress:528; Step:     7; Simulation step:51477
                  MF iterations:        3; SZ iterations:      3

Date: 1990/12/08; Stress:528; Step:     8; Simulation step:51478
                  MF iterations:        3; SZ iterations:      3

Date: 1990/12/09; Stress:528; Step:     9; Simulation step:51479
                  MF iterations:        3; SZ iterations:      3

Date: 1990/12/10; Stress:528; Step:    10; Simulation step:51480
                  MF iterations:        5; SZ iterations:      5

Date: 1990/12/11; Stress:528; Step:    11; Simulation step:51481
                  MF iterations:        3; SZ iterations:      3

Date: 1990/12/12; Stress:528; Step:    12; Simulation step:51482
                  MF iterations:        3; SZ iterations:      3

Date: 1990/12/13; Stress:528; Step:    13; Simulation step:51483
                  MF iterations:        2; SZ iterations:      2

Date: 1990/12/14; Stress:528; Step:    14; Simulation step:51484
                  MF iterations:        3; SZ iterations:      3

Date: 1990/12/15; Stress:528; Step:    15; Simulation step:51485
                  MF iterations:        2; SZ iterations:      2

Date: 1990/12/16; Stress:528; Step:    16; Simulation step:51486
                  MF iterations:        3; SZ iterations:      3

Date: 1990/12/17; Stress:528; Step:    17; Simulation step:51487
                  MF iterations:        3; SZ iterations:      3

Date: 1990/12/18; Stress:528; Step:    18; Simulation step:51488
                  MF iterations:        3; SZ iterations:      3

Date: 1990/12/19; Stress:528; Step:    19; Simulation step:51489
                  MF iterations:        3; SZ iterations:      3

Date: 1990/12/20; Stress:528; Step:    20; Simulation step:51490
                  MF iterations:        3; SZ iterations:      3

Date: 1990/12/21; Stress:528; Step:    21; Simulation step:51491
                  MF iterations:        2; SZ iterations:      2

Date: 1990/12/22; Stress:528; Step:    22; Simulation step:51492
                  MF iterations:        2; SZ iterations:      2

Date: 1990/12/23; Stress:528; Step:    23; Simulation step:51493
                  MF iterations:        2; SZ iterations:      2

Date: 1990/12/24; Stress:528; Step:    24; Simulation step:51494
                  MF iterations:        3; SZ iterations:      3

Date: 1990/12/25; Stress:528; Step:    25; Simulation step:51495
                  MF iterations:        3; SZ iterations:      3

Date: 1990/12/26; Stress:528; Step:    26; Simulation step:51496
                  MF iterations:        3; SZ iterations:      3

Date: 1990/12/27; Stress:528; Step:    27; Simulation step:51497
                  MF iterations:        3; SZ iterations:      3

Date: 1990/12/28; Stress:528; Step:    28; Simulation step:51498
                  MF iterations:        3; SZ iterations:      3

Date: 1990/12/29; Stress:528; Step:    29; Simulation step:51499
                  MF iterations:        3; SZ iterations:      3

Date: 1990/12/30; Stress:528; Step:    30; Simulation step:51500
                  MF iterations:        3; SZ iterations:      3

Date: 1990/12/31; Stress:528; Step:    31; Simulation step:51501
                  MF iterations:        3; SZ iterations:      3

 
 ***WARNING***
Non-zero values were specified for precipitation,
streamflow, and ET for streams in MODFLOW input files.
These values are set to zero for GSFLOW simulations
 
 
Date: 1991/01/01; Stress:529; Step:     1; Simulation step:51502
                  MF iterations:        3; SZ iterations:      3

Date: 1991/01/02; Stress:529; Step:     2; Simulation step:51503
                  MF iterations:        3; SZ iterations:      3

Date: 1991/01/03; Stress:529; Step:     3; Simulation step:51504
                  MF iterations:       20; SZ iterations:     20

Date: 1991/01/04; Stress:529; Step:     4; Simulation step:51505
                  MF iterations:       12; SZ iterations:     12

Date: 1991/01/05; Stress:529; Step:     5; Simulation step:51506
                  MF iterations:       14; SZ iterations:     14

Date: 1991/01/06; Stress:529; Step:     6; Simulation step:51507
                  MF iterations:       13; SZ iterations:     13

Date: 1991/01/07; Stress:529; Step:     7; Simulation step:51508
                  MF iterations:        3; SZ iterations:      3

Date: 1991/01/08; Stress:529; Step:     8; Simulation step:51509
                  MF iterations:        4; SZ iterations:      4

Date: 1991/01/09; Stress:529; Step:     9; Simulation step:51510
                  MF iterations:       13; SZ iterations:     13

Date: 1991/01/10; Stress:529; Step:    10; Simulation step:51511
                  MF iterations:       12; SZ iterations:     12

Date: 1991/01/11; Stress:529; Step:    11; Simulation step:51512
                  MF iterations:        3; SZ iterations:      3

Date: 1991/01/12; Stress:529; Step:    12; Simulation step:51513
                  MF iterations:        3; SZ iterations:      3

Date: 1991/01/13; Stress:529; Step:    13; Simulation step:51514
                  MF iterations:        3; SZ iterations:      3

Date: 1991/01/14; Stress:529; Step:    14; Simulation step:51515
                  MF iterations:        3; SZ iterations:      3

Date: 1991/01/15; Stress:529; Step:    15; Simulation step:51516
                  MF iterations:        3; SZ iterations:      3

Date: 1991/01/16; Stress:529; Step:    16; Simulation step:51517
                  MF iterations:        3; SZ iterations:      3

Date: 1991/01/17; Stress:529; Step:    17; Simulation step:51518
                  MF iterations:        3; SZ iterations:      3

Date: 1991/01/18; Stress:529; Step:    18; Simulation step:51519
                  MF iterations:        3; SZ iterations:      3

Date: 1991/01/19; Stress:529; Step:    19; Simulation step:51520
                  MF iterations:        3; SZ iterations:      3

Date: 1991/01/20; Stress:529; Step:    20; Simulation step:51521
                  MF iterations:        3; SZ iterations:      3

Date: 1991/01/21; Stress:529; Step:    21; Simulation step:51522
                  MF iterations:        3; SZ iterations:      3

Date: 1991/01/22; Stress:529; Step:    22; Simulation step:51523
                  MF iterations:        3; SZ iterations:      3

Date: 1991/01/23; Stress:529; Step:    23; Simulation step:51524
                  MF iterations:        3; SZ iterations:      3

Date: 1991/01/24; Stress:529; Step:    24; Simulation step:51525
                  MF iterations:        3; SZ iterations:      3

Date: 1991/01/25; Stress:529; Step:    25; Simulation step:51526
                  MF iterations:        3; SZ iterations:      3

Date: 1991/01/26; Stress:529; Step:    26; Simulation step:51527
                  MF iterations:        3; SZ iterations:      3

Date: 1991/01/27; Stress:529; Step:    27; Simulation step:51528
                  MF iterations:        3; SZ iterations:      3

Date: 1991/01/28; Stress:529; Step:    28; Simulation step:51529
                  MF iterations:        3; SZ iterations:      3

Date: 1991/01/29; Stress:529; Step:    29; Simulation step:51530
                  MF iterations:        3; SZ iterations:      3

Date: 1991/01/30; Stress:529; Step:    30; Simulation step:51531
                  MF iterations:        3; SZ iterations:      3

Date: 1991/01/31; Stress:529; Step:    31; Simulation step:51532
                  MF iterations:        3; SZ iterations:      3

 
 ***WARNING***
Non-zero values were specified for precipitation,
streamflow, and ET for streams in MODFLOW input files.
These values are set to zero for GSFLOW simulations
 
 
Date: 1991/02/01; Stress:530; Step:     1; Simulation step:51533
                  MF iterations:        3; SZ iterations:      3

Date: 1991/02/02; Stress:530; Step:     2; Simulation step:51534
                  MF iterations:        3; SZ iterations:      3

Date: 1991/02/03; Stress:530; Step:     3; Simulation step:51535
                  MF iterations:        3; SZ iterations:      3

Date: 1991/02/04; Stress:530; Step:     4; Simulation step:51536
                  MF iterations:        3; SZ iterations:      3

Date: 1991/02/05; Stress:530; Step:     5; Simulation step:51537
                  MF iterations:        3; SZ iterations:      3

Date: 1991/02/06; Stress:530; Step:     6; Simulation step:51538
                  MF iterations:        2; SZ iterations:      2

Date: 1991/02/07; Stress:530; Step:     7; Simulation step:51539
                  MF iterations:        2; SZ iterations:      2

Date: 1991/02/08; Stress:530; Step:     8; Simulation step:51540
                  MF iterations:        2; SZ iterations:      2

Date: 1991/02/09; Stress:530; Step:     9; Simulation step:51541
                  MF iterations:        2; SZ iterations:      2

Date: 1991/02/10; Stress:530; Step:    10; Simulation step:51542
                  MF iterations:        2; SZ iterations:      2

Date: 1991/02/11; Stress:530; Step:    11; Simulation step:51543
                  MF iterations:        3; SZ iterations:      3

Date: 1991/02/12; Stress:530; Step:    12; Simulation step:51544
                  MF iterations:        3; SZ iterations:      3

Date: 1991/02/13; Stress:530; Step:    13; Simulation step:51545
                  MF iterations:        3; SZ iterations:      3

Date: 1991/02/14; Stress:530; Step:    14; Simulation step:51546
                  MF iterations:        3; SZ iterations:      3

Date: 1991/02/15; Stress:530; Step:    15; Simulation step:51547
                  MF iterations:        3; SZ iterations:      3

Date: 1991/02/16; Stress:530; Step:    16; Simulation step:51548
                  MF iterations:        3; SZ iterations:      3

Date: 1991/02/17; Stress:530; Step:    17; Simulation step:51549
                  MF iterations:        3; SZ iterations:      3

Date: 1991/02/18; Stress:530; Step:    18; Simulation step:51550
                  MF iterations:        3; SZ iterations:      3

Date: 1991/02/19; Stress:530; Step:    19; Simulation step:51551
                  MF iterations:        3; SZ iterations:      3

Date: 1991/02/20; Stress:530; Step:    20; Simulation step:51552
                  MF iterations:        3; SZ iterations:      3

Date: 1991/02/21; Stress:530; Step:    21; Simulation step:51553
                  MF iterations:        3; SZ iterations:      3

Date: 1991/02/22; Stress:530; Step:    22; Simulation step:51554
                  MF iterations:        3; SZ iterations:      3

Date: 1991/02/23; Stress:530; Step:    23; Simulation step:51555
                  MF iterations:        3; SZ iterations:      3

Date: 1991/02/24; Stress:530; Step:    24; Simulation step:51556
                  MF iterations:        3; SZ iterations:      3

Date: 1991/02/25; Stress:530; Step:    25; Simulation step:51557
                  MF iterations:        3; SZ iterations:      3

Date: 1991/02/26; Stress:530; Step:    26; Simulation step:51558
                  MF iterations:        3; SZ iterations:      3

Date: 1991/02/27; Stress:530; Step:    27; Simulation step:51559
                  MF iterations:       17; SZ iterations:     17

Date: 1991/02/28; Stress:530; Step:    28; Simulation step:51560
                  MF iterations:       14; SZ iterations:     14

 
 ***WARNING***
Non-zero values were specified for precipitation,
streamflow, and ET for streams in MODFLOW input files.
These values are set to zero for GSFLOW simulations
 
 
Date: 1991/03/01; Stress:531; Step:     1; Simulation step:51561
                  MF iterations:       15; SZ iterations:     15

Date: 1991/03/02; Stress:531; Step:     2; Simulation step:51562
                  MF iterations:       17; SZ iterations:     17

Date: 1991/03/03; Stress:531; Step:     3; Simulation step:51563
                  MF iterations:       14; SZ iterations:     14

Date: 1991/03/04; Stress:531; Step:     4; Simulation step:51564
                  MF iterations:       10; SZ iterations:     10

Date: 1991/03/05; Stress:531; Step:     5; Simulation step:51565
                  MF iterations:       10; SZ iterations:     10

Date: 1991/03/06; Stress:531; Step:     6; Simulation step:51566
                  MF iterations:       14; SZ iterations:     14

Date: 1991/03/07; Stress:531; Step:     7; Simulation step:51567
                  MF iterations:        5; SZ iterations:      5

Date: 1991/03/08; Stress:531; Step:     8; Simulation step:51568
                  MF iterations:        5; SZ iterations:      5

Date: 1991/03/09; Stress:531; Step:     9; Simulation step:51569
                  MF iterations:        4; SZ iterations:      4

Date: 1991/03/10; Stress:531; Step:    10; Simulation step:51570
                  MF iterations:        5; SZ iterations:      5

Date: 1991/03/11; Stress:531; Step:    11; Simulation step:51571
                  MF iterations:       11; SZ iterations:     11

Date: 1991/03/12; Stress:531; Step:    12; Simulation step:51572
                  MF iterations:       11; SZ iterations:     11

Date: 1991/03/13; Stress:531; Step:    13; Simulation step:51573
                  MF iterations:       18; SZ iterations:     18

Date: 1991/03/14; Stress:531; Step:    14; Simulation step:51574
                  MF iterations:        4; SZ iterations:      4

Date: 1991/03/15; Stress:531; Step:    15; Simulation step:51575
                  MF iterations:       10; SZ iterations:     10

Date: 1991/03/16; Stress:531; Step:    16; Simulation step:51576
                  MF iterations:        4; SZ iterations:      4

Date: 1991/03/17; Stress:531; Step:    17; Simulation step:51577
                  MF iterations:        5; SZ iterations:      5

Date: 1991/03/18; Stress:531; Step:    18; Simulation step:51578
                  MF iterations:        3; SZ iterations:      3

Date: 1991/03/19; Stress:531; Step:    19; Simulation step:51579
                  MF iterations:       15; SZ iterations:     15

Date: 1991/03/20; Stress:531; Step:    20; Simulation step:51580
                  MF iterations:       11; SZ iterations:     11

Date: 1991/03/21; Stress:531; Step:    21; Simulation step:51581
                  MF iterations:       14; SZ iterations:     14

Date: 1991/03/22; Stress:531; Step:    22; Simulation step:51582
                  MF iterations:       10; SZ iterations:     10

Date: 1991/03/23; Stress:531; Step:    23; Simulation step:51583
                  MF iterations:        9; SZ iterations:      9

Date: 1991/03/24; Stress:531; Step:    24; Simulation step:51584
                  MF iterations:       13; SZ iterations:     13

Date: 1991/03/25; Stress:531; Step:    25; Simulation step:51585
                  MF iterations:       13; SZ iterations:     13

Date: 1991/03/26; Stress:531; Step:    26; Simulation step:51586
                  MF iterations:        7; SZ iterations:      7

Date: 1991/03/27; Stress:531; Step:    27; Simulation step:51587
                  MF iterations:       14; SZ iterations:     14

Date: 1991/03/28; Stress:531; Step:    28; Simulation step:51588
                  MF iterations:       30; SZ iterations:     30

Date: 1991/03/29; Stress:531; Step:    29; Simulation step:51589
                  MF iterations:       15; SZ iterations:     15

Date: 1991/03/30; Stress:531; Step:    30; Simulation step:51590
                  MF iterations:       11; SZ iterations:     11

Date: 1991/03/31; Stress:531; Step:    31; Simulation step:51591
                  MF iterations:       10; SZ iterations:     10

 
 ***WARNING***
Non-zero values were specified for precipitation,
streamflow, and ET for streams in MODFLOW input files.
These values are set to zero for GSFLOW simulations
 
 
Date: 1991/04/01; Stress:532; Step:     1; Simulation step:51592
                  MF iterations:       20; SZ iterations:     20

Date: 1991/04/02; Stress:532; Step:     2; Simulation step:51593
                  MF iterations:       23; SZ iterations:     23

Date: 1991/04/03; Stress:532; Step:     3; Simulation step:51594
                  MF iterations:        5; SZ iterations:      5

Date: 1991/04/04; Stress:532; Step:     4; Simulation step:51595
                  MF iterations:       11; SZ iterations:     11

Date: 1991/04/05; Stress:532; Step:     5; Simulation step:51596
                  MF iterations:       15; SZ iterations:     15

Date: 1991/04/06; Stress:532; Step:     6; Simulation step:51597
                  MF iterations:       11; SZ iterations:     11

Date: 1991/04/07; Stress:532; Step:     7; Simulation step:51598
                  MF iterations:       18; SZ iterations:     18

Date: 1991/04/08; Stress:532; Step:     8; Simulation step:51599
                  MF iterations:       17; SZ iterations:     17

Date: 1991/04/09; Stress:532; Step:     9; Simulation step:51600
                  MF iterations:        8; SZ iterations:      8

Date: 1991/04/10; Stress:532; Step:    10; Simulation step:51601
                  MF iterations:        8; SZ iterations:      8

Date: 1991/04/11; Stress:532; Step:    11; Simulation step:51602
                  MF iterations:        6; SZ iterations:      6

Date: 1991/04/12; Stress:532; Step:    12; Simulation step:51603
                  MF iterations:       25; SZ iterations:     25

Date: 1991/04/13; Stress:532; Step:    13; Simulation step:51604
                  MF iterations:        5; SZ iterations:      5

Date: 1991/04/14; Stress:532; Step:    14; Simulation step:51605
                  MF iterations:        5; SZ iterations:      5

Date: 1991/04/15; Stress:532; Step:    15; Simulation step:51606
                  MF iterations:       16; SZ iterations:     16

Date: 1991/04/16; Stress:532; Step:    16; Simulation step:51607
                  MF iterations:       13; SZ iterations:     13

Date: 1991/04/17; Stress:532; Step:    17; Simulation step:51608
                  MF iterations:        5; SZ iterations:      5

Date: 1991/04/18; Stress:532; Step:    18; Simulation step:51609
                  MF iterations:        5; SZ iterations:      5

Date: 1991/04/19; Stress:532; Step:    19; Simulation step:51610
                  MF iterations:        4; SZ iterations:      4

Date: 1991/04/20; Stress:532; Step:    20; Simulation step:51611
                  MF iterations:        5; SZ iterations:      5

Date: 1991/04/21; Stress:532; Step:    21; Simulation step:51612
                  MF iterations:        6; SZ iterations:      6

Date: 1991/04/22; Stress:532; Step:    22; Simulation step:51613
                  MF iterations:        4; SZ iterations:      4

Date: 1991/04/23; Stress:532; Step:    23; Simulation step:51614
                  MF iterations:        4; SZ iterations:      4

Date: 1991/04/24; Stress:532; Step:    24; Simulation step:51615
                  MF iterations:        3; SZ iterations:      3

Date: 1991/04/25; Stress:532; Step:    25; Simulation step:51616
                  MF iterations:        3; SZ iterations:      3

Date: 1991/04/26; Stress:532; Step:    26; Simulation step:51617
                  MF iterations:        4; SZ iterations:      4

Date: 1991/04/27; Stress:532; Step:    27; Simulation step:51618
                  MF iterations:        4; SZ iterations:      4

Date: 1991/04/28; Stress:532; Step:    28; Simulation step:51619
                  MF iterations:        4; SZ iterations:      4

Date: 1991/04/29; Stress:532; Step:    29; Simulation step:51620
                  MF iterations:        4; SZ iterations:      4

Date: 1991/04/30; Stress:532; Step:    30; Simulation step:51621
                  MF iterations:        3; SZ iterations:      3

 
 ***WARNING***
Non-zero values were specified for precipitation,
streamflow, and ET for streams in MODFLOW input files.
These values are set to zero for GSFLOW simulations
 
 
Date: 1991/05/01; Stress:533; Step:     1; Simulation step:51622
                  MF iterations:        8; SZ iterations:      8

Date: 1991/05/02; Stress:533; Step:     2; Simulation step:51623
                  MF iterations:        6; SZ iterations:      6

Date: 1991/05/03; Stress:533; Step:     3; Simulation step:51624
                  MF iterations:        3; SZ iterations:      3

Date: 1991/05/04; Stress:533; Step:     4; Simulation step:51625
                  MF iterations:        3; SZ iterations:      3

Date: 1991/05/05; Stress:533; Step:     5; Simulation step:51626
                  MF iterations:        3; SZ iterations:      3

Date: 1991/05/06; Stress:533; Step:     6; Simulation step:51627
                  MF iterations:        3; SZ iterations:      3

Date: 1991/05/07; Stress:533; Step:     7; Simulation step:51628
                  MF iterations:        3; SZ iterations:      3

Date: 1991/05/08; Stress:533; Step:     8; Simulation step:51629
                  MF iterations:        5; SZ iterations:      5

Date: 1991/05/09; Stress:533; Step:     9; Simulation step:51630
                  MF iterations:        3; SZ iterations:      3

Date: 1991/05/10; Stress:533; Step:    10; Simulation step:51631
                  MF iterations:        7; SZ iterations:      7

Date: 1991/05/11; Stress:533; Step:    11; Simulation step:51632
                  MF iterations:        3; SZ iterations:      3

Date: 1991/05/12; Stress:533; Step:    12; Simulation step:51633
                  MF iterations:        3; SZ iterations:      3

Date: 1991/05/13; Stress:533; Step:    13; Simulation step:51634
                  MF iterations:        3; SZ iterations:      3

Date: 1991/05/14; Stress:533; Step:    14; Simulation step:51635
                  MF iterations:        3; SZ iterations:      3

Date: 1991/05/15; Stress:533; Step:    15; Simulation step:51636
                  MF iterations:        3; SZ iterations:      3

Date: 1991/05/16; Stress:533; Step:    16; Simulation step:51637
                  MF iterations:        3; SZ iterations:      3

Date: 1991/05/17; Stress:533; Step:    17; Simulation step:51638
                  MF iterations:        3; SZ iterations:      3

Date: 1991/05/18; Stress:533; Step:    18; Simulation step:51639
                  MF iterations:        8; SZ iterations:      8

Date: 1991/05/19; Stress:533; Step:    19; Simulation step:51640
                  MF iterations:        3; SZ iterations:      3

Date: 1991/05/20; Stress:533; Step:    20; Simulation step:51641
                  MF iterations:        3; SZ iterations:      3

Date: 1991/05/21; Stress:533; Step:    21; Simulation step:51642
                  MF iterations:        3; SZ iterations:      3

Date: 1991/05/22; Stress:533; Step:    22; Simulation step:51643
                  MF iterations:        3; SZ iterations:      3

Date: 1991/05/23; Stress:533; Step:    23; Simulation step:51644
                  MF iterations:        3; SZ iterations:      3

Date: 1991/05/24; Stress:533; Step:    24; Simulation step:51645
                  MF iterations:        5; SZ iterations:      5

Date: 1991/05/25; Stress:533; Step:    25; Simulation step:51646
                  MF iterations:        3; SZ iterations:      3

Date: 1991/05/26; Stress:533; Step:    26; Simulation step:51647
                  MF iterations:        3; SZ iterations:      3

Date: 1991/05/27; Stress:533; Step:    27; Simulation step:51648
                  MF iterations:        3; SZ iterations:      3

Date: 1991/05/28; Stress:533; Step:    28; Simulation step:51649
                  MF iterations:        3; SZ iterations:      3

Date: 1991/05/29; Stress:533; Step:    29; Simulation step:51650
                  MF iterations:        3; SZ iterations:      3

Date: 1991/05/30; Stress:533; Step:    30; Simulation step:51651
                  MF iterations:        5; SZ iterations:      5

Date: 1991/05/31; Stress:533; Step:    31; Simulation step:51652
                  MF iterations:        3; SZ iterations:      3

 
 ***WARNING***
Non-zero values were specified for precipitation,
streamflow, and ET for streams in MODFLOW input files.
These values are set to zero for GSFLOW simulations
 
 
Date: 1991/06/01; Stress:534; Step:     1; Simulation step:51653
                  MF iterations:        3; SZ iterations:      3

Date: 1991/06/02; Stress:534; Step:     2; Simulation step:51654
                  MF iterations:        5; SZ iterations:      5

Date: 1991/06/03; Stress:534; Step:     3; Simulation step:51655
                  MF iterations:        9; SZ iterations:      9

Date: 1991/06/04; Stress:534; Step:     4; Simulation step:51656
                  MF iterations:        7; SZ iterations:      7

Date: 1991/06/05; Stress:534; Step:     5; Simulation step:51657
                  MF iterations:        3; SZ iterations:      3

Date: 1991/06/06; Stress:534; Step:     6; Simulation step:51658
                  MF iterations:        3; SZ iterations:      3

Date: 1991/06/07; Stress:534; Step:     7; Simulation step:51659
                  MF iterations:        3; SZ iterations:      3

Date: 1991/06/08; Stress:534; Step:     8; Simulation step:51660
                  MF iterations:        3; SZ iterations:      3

Date: 1991/06/09; Stress:534; Step:     9; Simulation step:51661
                  MF iterations:        5; SZ iterations:      5

Date: 1991/06/10; Stress:534; Step:    10; Simulation step:51662
                  MF iterations:        3; SZ iterations:      3

Date: 1991/06/11; Stress:534; Step:    11; Simulation step:51663
                  MF iterations:        7; SZ iterations:      7

Date: 1991/06/12; Stress:534; Step:    12; Simulation step:51664
                  MF iterations:        3; SZ iterations:      3

Date: 1991/06/13; Stress:534; Step:    13; Simulation step:51665
                  MF iterations:        3; SZ iterations:      3

Date: 1991/06/14; Stress:534; Step:    14; Simulation step:51666
                  MF iterations:        3; SZ iterations:      3

Date: 1991/06/15; Stress:534; Step:    15; Simulation step:51667
                  MF iterations:        5; SZ iterations:      5

Date: 1991/06/16; Stress:534; Step:    16; Simulation step:51668
                  MF iterations:        3; SZ iterations:      3

Date: 1991/06/17; Stress:534; Step:    17; Simulation step:51669
                  MF iterations:        3; SZ iterations:      3

Date: 1991/06/18; Stress:534; Step:    18; Simulation step:51670
                  MF iterations:        3; SZ iterations:      3

Date: 1991/06/19; Stress:534; Step:    19; Simulation step:51671
                  MF iterations:        3; SZ iterations:      3

Date: 1991/06/20; Stress:534; Step:    20; Simulation step:51672
                  MF iterations:        3; SZ iterations:      3

Date: 1991/06/21; Stress:534; Step:    21; Simulation step:51673
                  MF iterations:        3; SZ iterations:      3

Date: 1991/06/22; Stress:534; Step:    22; Simulation step:51674
                  MF iterations:        3; SZ iterations:      3

Date: 1991/06/23; Stress:534; Step:    23; Simulation step:51675
                  MF iterations:        3; SZ iterations:      3

Date: 1991/06/24; Stress:534; Step:    24; Simulation step:51676
                  MF iterations:        3; SZ iterations:      3

Date: 1991/06/25; Stress:534; Step:    25; Simulation step:51677
                  MF iterations:        5; SZ iterations:      5

Date: 1991/06/26; Stress:534; Step:    26; Simulation step:51678
                  MF iterations:        3; SZ iterations:      3

Date: 1991/06/27; Stress:534; Step:    27; Simulation step:51679
                  MF iterations:        5; SZ iterations:      5

Date: 1991/06/28; Stress:534; Step:    28; Simulation step:51680
                  MF iterations:        3; SZ iterations:      3

Date: 1991/06/29; Stress:534; Step:    29; Simulation step:51681
                  MF iterations:        3; SZ iterations:      3

Date: 1991/06/30; Stress:534; Step:    30; Simulation step:51682
                  MF iterations:        3; SZ iterations:      3

 
 ***WARNING***
[...]

Date: 2014/08/20; Stress:812; Step:    20; Simulation step:60134
                  MF iterations:        3; SZ iterations:      3

Date: 2014/08/21; Stress:812; Step:    21; Simulation step:60135
                  MF iterations:        3; SZ iterations:      3

Date: 2014/08/22; Stress:812; Step:    22; Simulation step:60136
                  MF iterations:        6; SZ iterations:      6

Date: 2014/08/23; Stress:812; Step:    23; Simulation step:60137
                  MF iterations:        3; SZ iterations:      3

Date: 2014/08/24; Stress:812; Step:    24; Simulation step:60138
                  MF iterations:        5; SZ iterations:      5

Date: 2014/08/25; Stress:812; Step:    25; Simulation step:60139
                  MF iterations:        3; SZ iterations:      3

Date: 2014/08/26; Stress:812; Step:    26; Simulation step:60140
                  MF iterations:        3; SZ iterations:      3

Date: 2014/08/27; Stress:812; Step:    27; Simulation step:60141
                  MF iterations:        3; SZ iterations:      3

Date: 2014/08/28; Stress:812; Step:    28; Simulation step:60142
                  MF iterations:        3; SZ iterations:      3

Date: 2014/08/29; Stress:812; Step:    29; Simulation step:60143
                  MF iterations:        3; SZ iterations:      3

Date: 2014/08/30; Stress:812; Step:    30; Simulation step:60144
                  MF iterations:        3; SZ iterations:      3

Date: 2014/08/31; Stress:812; Step:    31; Simulation step:60145
                  MF iterations:        3; SZ iterations:      3

 
 ***WARNING***
Non-zero values were specified for precipitation,
streamflow, and ET for streams in MODFLOW input files.
These values are set to zero for GSFLOW simulations
 
 
Date: 2014/09/01; Stress:813; Step:     1; Simulation step:60146
                  MF iterations:        3; SZ iterations:      3

Date: 2014/09/02; Stress:813; Step:     2; Simulation step:60147
                  MF iterations:        3; SZ iterations:      3

Date: 2014/09/03; Stress:813; Step:     3; Simulation step:60148
                  MF iterations:        3; SZ iterations:      3

Date: 2014/09/04; Stress:813; Step:     4; Simulation step:60149
                  MF iterations:        3; SZ iterations:      3

Date: 2014/09/05; Stress:813; Step:     5; Simulation step:60150
                  MF iterations:        3; SZ iterations:      3

Date: 2014/09/06; Stress:813; Step:     6; Simulation step:60151
                  MF iterations:        3; SZ iterations:      3

Date: 2014/09/07; Stress:813; Step:     7; Simulation step:60152
                  MF iterations:        5; SZ iterations:      5

Date: 2014/09/08; Stress:813; Step:     8; Simulation step:60153
                  MF iterations:        3; SZ iterations:      3

Date: 2014/09/09; Stress:813; Step:     9; Simulation step:60154
                  MF iterations:        3; SZ iterations:      3

Date: 2014/09/10; Stress:813; Step:    10; Simulation step:60155
                  MF iterations:        3; SZ iterations:      3

Date: 2014/09/11; Stress:813; Step:    11; Simulation step:60156
                  MF iterations:        3; SZ iterations:      3

Date: 2014/09/12; Stress:813; Step:    12; Simulation step:60157
                  MF iterations:        3; SZ iterations:      3

Date: 2014/09/13; Stress:813; Step:    13; Simulation step:60158
                  MF iterations:        3; SZ iterations:      3

Date: 2014/09/14; Stress:813; Step:    14; Simulation step:60159
                  MF iterations:        3; SZ iterations:      3

Date: 2014/09/15; Stress:813; Step:    15; Simulation step:60160
                  MF iterations:        3; SZ iterations:      3

Date: 2014/09/16; Stress:813; Step:    16; Simulation step:60161
                  MF iterations:        3; SZ iterations:      3

Date: 2014/09/17; Stress:813; Step:    17; Simulation step:60162
                  MF iterations:        3; SZ iterations:      3

Date: 2014/09/18; Stress:813; Step:    18; Simulation step:60163
                  MF iterations:        3; SZ iterations:      3

Date: 2014/09/19; Stress:813; Step:    19; Simulation step:60164
                  MF iterations:        4; SZ iterations:      4

Date: 2014/09/20; Stress:813; Step:    20; Simulation step:60165
                  MF iterations:        3; SZ iterations:      3

Date: 2014/09/21; Stress:813; Step:    21; Simulation step:60166
                  MF iterations:        3; SZ iterations:      3

Date: 2014/09/22; Stress:813; Step:    22; Simulation step:60167
                  MF iterations:        3; SZ iterations:      3

Date: 2014/09/23; Stress:813; Step:    23; Simulation step:60168
                  MF iterations:        3; SZ iterations:      3

Date: 2014/09/24; Stress:813; Step:    24; Simulation step:60169
                  MF iterations:        3; SZ iterations:      3

Date: 2014/09/25; Stress:813; Step:    25; Simulation step:60170
                  MF iterations:        8; SZ iterations:      8

Date: 2014/09/26; Stress:813; Step:    26; Simulation step:60171
                  MF iterations:        3; SZ iterations:      3

Date: 2014/09/27; Stress:813; Step:    27; Simulation step:60172
                  MF iterations:        3; SZ iterations:      3

Date: 2014/09/28; Stress:813; Step:    28; Simulation step:60173
                  MF iterations:        3; SZ iterations:      3

Date: 2014/09/29; Stress:813; Step:    29; Simulation step:60174
                  MF iterations:        3; SZ iterations:      3

Date: 2014/09/30; Stress:813; Step:    30; Simulation step:60175
                  MF iterations:        3; SZ iterations:      3

 
 ***WARNING***
Non-zero values were specified for precipitation,
streamflow, and ET for streams in MODFLOW input files.
These values are set to zero for GSFLOW simulations
 
 
Date: 2014/10/01; Stress:814; Step:     1; Simulation step:60176
                  MF iterations:        5; SZ iterations:      5

Date: 2014/10/02; Stress:814; Step:     2; Simulation step:60177
                  MF iterations:        3; SZ iterations:      3

Date: 2014/10/03; Stress:814; Step:     3; Simulation step:60178
                  MF iterations:        5; SZ iterations:      5

Date: 2014/10/04; Stress:814; Step:     4; Simulation step:60179
                  MF iterations:        3; SZ iterations:      3

Date: 2014/10/05; Stress:814; Step:     5; Simulation step:60180
                  MF iterations:        5; SZ iterations:      5

Date: 2014/10/06; Stress:814; Step:     6; Simulation step:60181
                  MF iterations:        3; SZ iterations:      3

Date: 2014/10/07; Stress:814; Step:     7; Simulation step:60182
                  MF iterations:        3; SZ iterations:      3

Date: 2014/10/08; Stress:814; Step:     8; Simulation step:60183
                  MF iterations:        3; SZ iterations:      3

Date: 2014/10/09; Stress:814; Step:     9; Simulation step:60184
                  MF iterations:        3; SZ iterations:      3

Date: 2014/10/10; Stress:814; Step:    10; Simulation step:60185
                  MF iterations:        3; SZ iterations:      3

Date: 2014/10/11; Stress:814; Step:    11; Simulation step:60186
                  MF iterations:        3; SZ iterations:      3

Date: 2014/10/12; Stress:814; Step:    12; Simulation step:60187
                  MF iterations:        3; SZ iterations:      3

Date: 2014/10/13; Stress:814; Step:    13; Simulation step:60188
                  MF iterations:        8; SZ iterations:      8

Date: 2014/10/14; Stress:814; Step:    14; Simulation step:60189
                  MF iterations:        3; SZ iterations:      3

Date: 2014/10/15; Stress:814; Step:    15; Simulation step:60190
                  MF iterations:        3; SZ iterations:      3

Date: 2014/10/16; Stress:814; Step:    16; Simulation step:60191
                  MF iterations:        6; SZ iterations:      6

Date: 2014/10/17; Stress:814; Step:    17; Simulation step:60192
                  MF iterations:        3; SZ iterations:      3

Date: 2014/10/18; Stress:814; Step:    18; Simulation step:60193
                  MF iterations:        3; SZ iterations:      3

Date: 2014/10/19; Stress:814; Step:    19; Simulation step:60194
                  MF iterations:        3; SZ iterations:      3

Date: 2014/10/20; Stress:814; Step:    20; Simulation step:60195
                  MF iterations:       12; SZ iterations:     12

Date: 2014/10/21; Stress:814; Step:    21; Simulation step:60196
                  MF iterations:        3; SZ iterations:      3

Date: 2014/10/22; Stress:814; Step:    22; Simulation step:60197
                  MF iterations:        3; SZ iterations:      3

Date: 2014/10/23; Stress:814; Step:    23; Simulation step:60198
                  MF iterations:        3; SZ iterations:      3

Date: 2014/10/24; Stress:814; Step:    24; Simulation step:60199
                  MF iterations:        3; SZ iterations:      3

Date: 2014/10/25; Stress:814; Step:    25; Simulation step:60200
                  MF iterations:        3; SZ iterations:      3

Date: 2014/10/26; Stress:814; Step:    26; Simulation step:60201
                  MF iterations:        6; SZ iterations:      6

Date: 2014/10/27; Stress:814; Step:    27; Simulation step:60202
                  MF iterations:        3; SZ iterations:      3

Date: 2014/10/28; Stress:814; Step:    28; Simulation step:60203
                  MF iterations:        5; SZ iterations:      5

Date: 2014/10/29; Stress:814; Step:    29; Simulation step:60204
                  MF iterations:        3; SZ iterations:      3

Date: 2014/10/30; Stress:814; Step:    30; Simulation step:60205
                  MF iterations:        7; SZ iterations:      7

Date: 2014/10/31; Stress:814; Step:    31; Simulation step:60206
                  MF iterations:        3; SZ iterations:      3

 
 ***WARNING***
Non-zero values were specified for precipitation,
streamflow, and ET for streams in MODFLOW input files.
These values are set to zero for GSFLOW simulations
 
 
Date: 2014/11/01; Stress:815; Step:     1; Simulation step:60207
                  MF iterations:       12; SZ iterations:     12

Date: 2014/11/02; Stress:815; Step:     2; Simulation step:60208
                  MF iterations:       11; SZ iterations:     11

Date: 2014/11/03; Stress:815; Step:     3; Simulation step:60209
                  MF iterations:        3; SZ iterations:      3

Date: 2014/11/04; Stress:815; Step:     4; Simulation step:60210
                  MF iterations:        3; SZ iterations:      3

Date: 2014/11/05; Stress:815; Step:     5; Simulation step:60211
                  MF iterations:        3; SZ iterations:      3

Date: 2014/11/06; Stress:815; Step:     6; Simulation step:60212
                  MF iterations:        3; SZ iterations:      3

Date: 2014/11/07; Stress:815; Step:     7; Simulation step:60213
                  MF iterations:        3; SZ iterations:      3

Date: 2014/11/08; Stress:815; Step:     8; Simulation step:60214
                  MF iterations:        2; SZ iterations:      2

Date: 2014/11/09; Stress:815; Step:     9; Simulation step:60215
                  MF iterations:        3; SZ iterations:      3

Date: 2014/11/10; Stress:815; Step:    10; Simulation step:60216
                  MF iterations:        3; SZ iterations:      3

Date: 2014/11/11; Stress:815; Step:    11; Simulation step:60217
                  MF iterations:        3; SZ iterations:      3

Date: 2014/11/12; Stress:815; Step:    12; Simulation step:60218
                  MF iterations:        3; SZ iterations:      3

Date: 2014/11/13; Stress:815; Step:    13; Simulation step:60219
                  MF iterations:        3; SZ iterations:      3

Date: 2014/11/14; Stress:815; Step:    14; Simulation step:60220
                  MF iterations:        3; SZ iterations:      3

Date: 2014/11/15; Stress:815; Step:    15; Simulation step:60221
                  MF iterations:        3; SZ iterations:      3

Date: 2014/11/16; Stress:815; Step:    16; Simulation step:60222
                  MF iterations:        3; SZ iterations:      3

Date: 2014/11/17; Stress:815; Step:    17; Simulation step:60223
                  MF iterations:        3; SZ iterations:      3

Date: 2014/11/18; Stress:815; Step:    18; Simulation step:60224
                  MF iterations:        2; SZ iterations:      2

Date: 2014/11/19; Stress:815; Step:    19; Simulation step:60225
                  MF iterations:        2; SZ iterations:      2

Date: 2014/11/20; Stress:815; Step:    20; Simulation step:60226
                  MF iterations:        2; SZ iterations:      2

Date: 2014/11/21; Stress:815; Step:    21; Simulation step:60227
                  MF iterations:        2; SZ iterations:      2

Date: 2014/11/22; Stress:815; Step:    22; Simulation step:60228
                  MF iterations:        3; SZ iterations:      3

Date: 2014/11/23; Stress:815; Step:    23; Simulation step:60229
                  MF iterations:        3; SZ iterations:      3

Date: 2014/11/24; Stress:815; Step:    24; Simulation step:60230
                  MF iterations:        3; SZ iterations:      3

Date: 2014/11/25; Stress:815; Step:    25; Simulation step:60231
                  MF iterations:        3; SZ iterations:      3

Date: 2014/11/26; Stress:815; Step:    26; Simulation step:60232
                  MF iterations:        3; SZ iterations:      3

Date: 2014/11/27; Stress:815; Step:    27; Simulation step:60233
                  MF iterations:        5; SZ iterations:      5

Date: 2014/11/28; Stress:815; Step:    28; Simulation step:60234
                  MF iterations:        3; SZ iterations:      3

Date: 2014/11/29; Stress:815; Step:    29; Simulation step:60235
                  MF iterations:        3; SZ iterations:      3

Date: 2014/11/30; Stress:815; Step:    30; Simulation step:60236
                  MF iterations:        2; SZ iterations:      2

 
 ***WARNING***
Non-zero values were specified for precipitation,
streamflow, and ET for streams in MODFLOW input files.
These values are set to zero for GSFLOW simulations
 
 
Date: 2014/12/01; Stress:816; Step:     1; Simulation step:60237
                  MF iterations:        3; SZ iterations:      3

Date: 2014/12/02; Stress:816; Step:     2; Simulation step:60238
                  MF iterations:       24; SZ iterations:     24

Date: 2014/12/03; Stress:816; Step:     3; Simulation step:60239
                  MF iterations:       14; SZ iterations:     14

Date: 2014/12/04; Stress:816; Step:     4; Simulation step:60240
                  MF iterations:       10; SZ iterations:     10

Date: 2014/12/05; Stress:816; Step:     5; Simulation step:60241
                  MF iterations:       15; SZ iterations:     15

Date: 2014/12/06; Stress:816; Step:     6; Simulation step:60242
                  MF iterations:        3; SZ iterations:      3

Date: 2014/12/07; Stress:816; Step:     7; Simulation step:60243
                  MF iterations:        3; SZ iterations:      3

Date: 2014/12/08; Stress:816; Step:     8; Simulation step:60244
                  MF iterations:        3; SZ iterations:      3

Date: 2014/12/09; Stress:816; Step:     9; Simulation step:60245
                  MF iterations:        2; SZ iterations:      2

Date: 2014/12/10; Stress:816; Step:    10; Simulation step:60246
                  MF iterations:        3; SZ iterations:      3

Date: 2014/12/11; Stress:816; Step:    11; Simulation step:60247
                  MF iterations:        2; SZ iterations:      2

Date: 2014/12/12; Stress:816; Step:    12; Simulation step:60248
                  MF iterations:       15; SZ iterations:     15

Date: 2014/12/13; Stress:816; Step:    13; Simulation step:60249
                  MF iterations:       15; SZ iterations:     15

Date: 2014/12/14; Stress:816; Step:    14; Simulation step:60250
                  MF iterations:        4; SZ iterations:      4

Date: 2014/12/15; Stress:816; Step:    15; Simulation step:60251
                  MF iterations:        3; SZ iterations:      3

Date: 2014/12/16; Stress:816; Step:    16; Simulation step:60252
                  MF iterations:        3; SZ iterations:      3

Date: 2014/12/17; Stress:816; Step:    17; Simulation step:60253
                  MF iterations:       14; SZ iterations:     14

Date: 2014/12/18; Stress:816; Step:    18; Simulation step:60254
                  MF iterations:       14; SZ iterations:     14

Date: 2014/12/19; Stress:816; Step:    19; Simulation step:60255
                  MF iterations:        3; SZ iterations:      3

Date: 2014/12/20; Stress:816; Step:    20; Simulation step:60256
                  MF iterations:       23; SZ iterations:     23

Date: 2014/12/21; Stress:816; Step:    21; Simulation step:60257
                  MF iterations:        3; SZ iterations:      3

Date: 2014/12/22; Stress:816; Step:    22; Simulation step:60258
                  MF iterations:        3; SZ iterations:      3

Date: 2014/12/23; Stress:816; Step:    23; Simulation step:60259
                  MF iterations:        2; SZ iterations:      2

Date: 2014/12/24; Stress:816; Step:    24; Simulation step:60260
                  MF iterations:        3; SZ iterations:      3

Date: 2014/12/25; Stress:816; Step:    25; Simulation step:60261
                  MF iterations:        2; SZ iterations:      2

Date: 2014/12/26; Stress:816; Step:    26; Simulation step:60262
                  MF iterations:        2; SZ iterations:      2

Date: 2014/12/27; Stress:816; Step:    27; Simulation step:60263
                  MF iterations:        2; SZ iterations:      2

Date: 2014/12/28; Stress:816; Step:    28; Simulation step:60264
                  MF iterations:        3; SZ iterations:      3

Date: 2014/12/29; Stress:816; Step:    29; Simulation step:60265
                  MF iterations:        3; SZ iterations:      3

Date: 2014/12/30; Stress:816; Step:    30; Simulation step:60266
                  MF iterations:        5; SZ iterations:      5

Date: 2014/12/31; Stress:816; Step:    31; Simulation step:60267
                  MF iterations:        2; SZ iterations:      2


 Run end date and time (yyyy/mm/dd hh:mm:ss): 2018/08/08 17:42:23
 Elapsed run time: 53 Minutes, 33.396 Seconds

 Number of time steps:   9131;  Number of non-convergence:   0
 MF iterations:         43312;  SZ iterations:           43312
 Average MF iterations:  4.74;  Average SZ iterations:    4.74
 Maximum MF iterations:    54;  Maximum SZ iterations:      54

MF iteration distribution:      0  580 5908  417  690  161  189   89  120  163
                              105   50   86  191  122   29   26   24   17   11
                                9   14   15   15   18    6    9   12    8    4
                                8    3    3    3    2    3    4    4    2    1
                                2    0    2    2    1    0    0    0    0    0
                                0    1    0    2    0    0    0    0    0    0
                                0    0    0    0    0    0    0    0    0    0
                                0    0    0    0    0    0    0    0    0    0



SZ computation distribution:    0  580 5908  417  690  161  189   89  120  163
                              105   50   86  191  122   29   26   24   17   11
                                9   14   15   15   18    6    9   12    8    4
                                8    3    3    3    2    3    4    4    2    1
                                2    0    2    2    1    0    0    0    0    0
                                0    1    0    2    0    0    0    0    0    0
                                0    0    0    0    0    0    0    0    0    0
                                0    0    0    0    0    0    0    0    0    0



Normal termination of simulation
